7
SF6 ...
S      0.0000000000   0.0000000000   0.0000000000
F      1.4829000000   0.0000000000   0.0000000000
F     -1.4829000000   0.0000000000   0.0000000000
F      0.0000000000   0.0000000000   1.4829000000
F      0.0000000000   0.0000000000  -1.4829000000
F      0.0000000000   1.4829000000   0.0000000000
F      0.0000000000  -1.4829000000   0.0000000000
