7
 SF5Cl, ADF revPBE TZ2P C4v geometry
S      -0.26285737      -0.00000000       0.00000000
F      -0.27841934      -1.62376821      -0.00897611
F      -0.27841934       1.62376821       0.00897611
Cl       1.84136184       0.00000000      -0.00000000
F      -1.87649168      -0.00000000       0.00000000
F      -0.27841934       0.00897611      -1.62376821
F      -0.27841934      -0.00897611       1.62376821
