 8

O1            0.686791            1.582464            0.024205
H1            1.071132            0.665285           -0.024458
O2            1.023330           -1.162907           -0.085388
H2a           0.040729           -1.167891           -0.092657
H2b           1.277042           -1.665532            0.703242
O3           -1.597406           -0.211219           -0.083471
H3a          -1.106657            0.634474           -0.112754
H3b          -2.183970           -0.133044            0.683858
