18
Methanol in water, demonstrating ghosts and points
C      -0.000000010000       0.138569980000       0.355570700000   b=Solute
O      -0.000000010000       0.187935770000      -1.074466460000   b=Solute
H       0.882876920000      -0.383123830000       0.697839450000   b=Solute
H      -0.882876940000      -0.383123830000       0.697839450000   b=Solute
H      -0.000000010000       1.145042790000       0.750208830000   b=Solute
H      -0.000000010000      -0.705300580000      -1.426986340000   b=Solute
O.GH   -3.210610000000      -0.001780000000      -1.695770000000   b=Solvent
H.GH   -3.614920000000      -0.714050000000      -2.191180000000   b=Solvent
H.GH   -3.124300000000      -0.346450000000      -0.806960000000   b=Solvent
O.PC            2.1694   -1.4071    1.6399    
H.PC            1.4375   -0.8985    1.9889   
H.PC            1.7718   -2.2241    1.3387  
O.PC            2.5732   -1.0341   -1.7207 
H.PC            2.4926   -1.9486   -1.9915
H.PC            2.1597   -0.5374   -2.4267
O.PC            0.1459    3.4195    0.1673
H.PC            0.0767    2.4785    0.0062
H.PC            0.9079    3.5097    0.7395

