7
SF6 ...
S      0.0000000000   0.0000000000   0.0000000000
F      2.8032000000   0.0000000000   0.0000000000
F     -2.8032000000   0.0000000000   0.0000000000
F      0.0000000000   0.0000000000   2.8032000000
F      0.0000000000   0.0000000000  -2.8032000000
F      0.0000000000   2.8032000000   0.0000000000
F      0.0000000000  -2.8032000000   0.0000000000
