2                                                                                                   
                                                                                                    
Cm    0.00 0.00 0.00                                                                                   
Cm.GH 0.00 0.00 10.00