5
 Methane; ADF imposed T(d) symmetry
C      -0.00000000      -0.00000000      -0.00000000
H       0.62354000       0.62354000      -0.62354000
H       0.62354000      -0.62354000       0.62354000
H      -0.62354000       0.62354000       0.62354000
H      -0.62354000      -0.62354000      -0.62354000
