11
 Os(CO)5;  ADF: D(3h) symmetry imposed
Os       0.00000091      -0.00000000       0.00000000
C       0.00000091      -0.00000000      -2.15000000
O       0.00000091      -0.00000000      -3.15000000
C       0.00000091      -0.00000000       2.15000000
O       0.00000091      -0.00000000       3.15000000
C       1.07360091      -1.85953000       0.00000000
O       1.57475091      -2.72755000       0.00000000
C       1.07360091       1.85953000       0.00000000
O       1.57475091       2.72755000       0.00000000
C      -2.14720909       0.00000000       0.00000000
O      -3.14949909       0.00000000       0.00000000
