10
  Acetone molecule
O      0.0000000000   1.8346349305   0.0000000000
C      0.0000000000   0.6034344984   0.0000000000
C      0.0000000000  -0.1563339795   1.3236741929
C      0.0000000000  -0.1563339795  -1.3236741929
H      0.0000000000   0.5315090393   2.1894922306
H      0.0000000000   0.5315090393  -2.1894922306
H      0.8962161281  -0.7971048871   1.4128227329
H     -0.8962161281  -0.7971048871   1.4128227329
H      0.8962161281  -0.7971048871  -1.4128227329
H     -0.8962161281  -0.7971048871  -1.4128227329
